Version 4
SHEET 1 1808 680
WIRE 112 -48 -80 -48
WIRE 640 -48 192 -48
WIRE 976 -48 784 -48
WIRE 1504 -48 1056 -48
WIRE -80 48 -80 -48
WIRE -48 48 -80 48
WIRE 48 48 32 48
WIRE 96 48 48 48
WIRE 336 48 304 48
WIRE 640 48 640 -48
WIRE 640 48 576 48
WIRE 784 64 784 -48
WIRE 816 64 784 64
WIRE 912 64 896 64
WIRE 960 64 912 64
WIRE 1200 64 1168 64
WIRE 1504 64 1504 -48
WIRE 1504 64 1440 64
WIRE -80 144 -80 48
WIRE -48 144 -80 144
WIRE 48 160 48 48
WIRE 48 160 16 160
WIRE 96 160 48 160
WIRE 240 160 240 48
WIRE 240 160 176 160
WIRE 256 160 240 160
WIRE 784 160 784 64
WIRE 816 160 784 160
WIRE -80 176 -96 176
WIRE -48 176 -80 176
WIRE 336 176 336 48
WIRE 336 176 320 176
WIRE 400 176 336 176
WIRE 512 176 512 48
WIRE 512 176 480 176
WIRE 544 176 512 176
WIRE 912 176 912 64
WIRE 912 176 880 176
WIRE 960 176 912 176
WIRE 1104 176 1104 64
WIRE 1104 176 1040 176
WIRE 1120 176 1104 176
WIRE 256 192 240 192
WIRE 608 192 592 192
WIRE 640 192 640 48
WIRE 640 192 608 192
WIRE 688 192 640 192
WIRE 784 192 768 192
WIRE 816 192 784 192
WIRE 1200 192 1200 64
WIRE 1200 192 1184 192
WIRE 1264 192 1200 192
WIRE 1376 192 1376 64
WIRE 1376 192 1344 192
WIRE 1408 192 1376 192
WIRE 528 208 512 208
WIRE 544 208 528 208
WIRE 1120 208 1104 208
WIRE 1472 208 1456 208
WIRE 1504 208 1504 64
WIRE 1504 208 1472 208
WIRE 1552 208 1504 208
WIRE 1712 208 1632 208
WIRE -176 224 -176 176
WIRE 240 224 240 192
WIRE 1392 224 1376 224
WIRE 1408 224 1392 224
WIRE 528 240 528 208
WIRE 1104 240 1104 208
WIRE -80 256 -80 176
WIRE 32 256 -80 256
WIRE 336 256 336 176
WIRE 336 256 112 256
WIRE 384 256 336 256
WIRE 1392 256 1392 224
WIRE 1712 256 1712 208
WIRE -176 272 -176 224
WIRE 784 272 784 192
WIRE 896 272 784 272
WIRE 1200 272 1200 192
WIRE 1200 272 976 272
WIRE 1248 272 1200 272
FLAG -176 224 in
FLAG -176 352 0
FLAG 240 224 0
FLAG 528 240 0
FLAG 48 48 1
FLAG 384 256 2
FLAG 1104 240 0
FLAG 1392 256 0
FLAG 912 64 3
FLAG 1248 272 4
FLAG 1712 320 0
FLAG 1712 208 out
SYMBOL res -80 160 R90
WINDOW 0 0 56 VBottom 2
WINDOW 3 32 56 VTop 2
SYMATTR InstName R5
SYMATTR Value 1K
SYMBOL res 128 240 R90
WINDOW 0 0 56 VBottom 2
WINDOW 3 32 56 VTop 2
SYMATTR InstName R6
SYMATTR Value 1K
SYMBOL res 48 32 R90
WINDOW 0 0 56 VBottom 2
WINDOW 3 32 56 VTop 2
SYMATTR InstName R4
SYMATTR Value 1K
SYMBOL res 208 -64 R90
WINDOW 0 0 56 VBottom 2
WINDOW 3 32 56 VTop 2
SYMATTR InstName R3
SYMATTR Value 1K
SYMBOL res 192 144 R90
WINDOW 0 0 56 VBottom 2
WINDOW 3 32 56 VTop 2
SYMATTR InstName R1
SYMATTR Value 1K
SYMBOL res 496 160 R90
WINDOW 0 0 56 VBottom 2
WINDOW 3 32 56 VTop 2
SYMATTR InstName R2
SYMATTR Value 1K
SYMBOL voltage -176 256 R0
WINDOW 123 24 124 Left 2
WINDOW 39 0 0 Left 0
SYMATTR Value2 AC 1
SYMATTR InstName Vin
SYMATTR Value ""
SYMBOL OpAmps\\opamp -16 96 R0
SYMATTR InstName U1
SYMBOL OpAmps\\opamp 288 112 R0
SYMATTR InstName U2
SYMBOL OpAmps\\opamp 576 128 R0
SYMATTR InstName U3
SYMBOL cap 304 32 R90
WINDOW 0 0 32 VBottom 2
WINDOW 3 32 32 VTop 2
SYMATTR InstName C1
SYMATTR Value 1.6mF
SYMBOL cap 576 32 R90
WINDOW 0 0 32 VBottom 2
WINDOW 3 32 32 VTop 2
SYMATTR InstName C2
SYMATTR Value 1.263mF
SYMBOL res 784 176 R90
WINDOW 0 0 56 VBottom 2
WINDOW 3 32 56 VTop 2
SYMATTR InstName R7
SYMATTR Value 1K
SYMBOL res 992 256 R90
WINDOW 0 0 56 VBottom 2
WINDOW 3 32 56 VTop 2
SYMATTR InstName R8
SYMATTR Value 1K
SYMBOL res 912 48 R90
WINDOW 0 0 56 VBottom 2
WINDOW 3 32 56 VTop 2
SYMATTR InstName R9
SYMATTR Value 1K
SYMBOL res 1072 -64 R90
WINDOW 0 0 56 VBottom 2
WINDOW 3 32 56 VTop 2
SYMATTR InstName R10
SYMATTR Value 1K
SYMBOL res 1056 160 R90
WINDOW 0 0 56 VBottom 2
WINDOW 3 32 56 VTop 2
SYMATTR InstName R11
SYMATTR Value 1K
SYMBOL res 1360 176 R90
WINDOW 0 0 56 VBottom 2
WINDOW 3 32 56 VTop 2
SYMATTR InstName R12
SYMATTR Value 1K
SYMBOL OpAmps\\opamp 848 112 R0
SYMATTR InstName U4
SYMBOL OpAmps\\opamp 1152 128 R0
SYMATTR InstName U5
SYMBOL OpAmps\\opamp 1440 144 R0
SYMATTR InstName U6
SYMBOL cap 1168 48 R90
WINDOW 0 0 32 VBottom 2
WINDOW 3 32 32 VTop 2
SYMATTR InstName C3
SYMATTR Value 4.192mF
SYMBOL cap 1440 48 R90
WINDOW 0 0 32 VBottom 2
WINDOW 3 32 32 VTop 2
SYMATTR InstName C4
SYMATTR Value 0.226mF
SYMBOL res 1648 192 R90
WINDOW 0 0 56 VBottom 2
WINDOW 3 32 56 VTop 2
SYMATTR InstName R13
SYMATTR Value 1K
SYMBOL cap 1696 256 R0
SYMATTR InstName C5
SYMATTR Value 2.59mF
TEXT 416 328 Left 2 !.lib opamp.sub
TEXT 416 360 Left 2 !.ac dec 100 0.01 10
